2HVX_A
     RDKit          3D

 28 31  0  0  0  0  0  0  0  0999 V2000
  -15.8610  -19.3790  -12.4760 C   0  0  0  0  0  0  0  0  0  0  0  0
  -14.7000  -18.5380  -12.4830 C   0  0  0  0  0  0  0  0  0  0  0  0
  -14.0890  -18.1710  -11.2350 C   0  0  0  0  0  0  0  0  0  0  0  0
  -12.9360  -17.3340  -11.2550 C   0  0  0  0  0  0  0  0  0  0  0  0
  -12.3380  -16.9670  -10.0070 C   0  0  0  0  0  0  0  0  0  0  0  0
  -11.3130  -16.3470   -7.1750 C   0  0  0  0  0  0  0  0  0  0  0  0
  -10.9980  -16.3380   -5.6400 C   0  0  2  0  0  0  0  0  0  0  0  0
  -11.1660  -14.9420   -5.0180 C   0  0  0  0  0  0  0  0  0  0  0  0
  -11.7720  -14.7710   -3.6130 C   0  0  0  0  0  0  0  0  0  0  0  0
  -12.2520  -15.7730   -2.6820 C   0  0  0  0  0  0  0  0  0  0  0  0
  -12.7840  -15.3600   -1.3950 C   0  0  0  0  0  0  0  0  0  0  0  0
  -16.4070  -19.8540  -11.2400 C   0  0  0  0  0  0  0  0  0  0  0  0
  -15.8020  -19.4920   -9.9870 C   0  0  0  0  0  0  0  0  0  0  0  0
  -14.6460  -18.6560   -9.9810 C   0  0  0  0  0  0  0  0  0  0  0  0
  -14.0340  -18.2840   -8.7390 C   0  0  0  0  0  0  0  0  0  0  0  0
  -12.8710  -17.4350   -8.7510 C   0  0  0  0  0  0  0  0  0  0  0  0
  -10.7810  -13.7190   -5.7010 C   0  0  0  0  0  0  0  0  0  0  0  0
  -11.8600  -13.3200   -3.1790 C   0  0  0  0  0  0  0  0  0  0  0  0
  -12.3620  -17.1450   -7.5080 N   0  0  0  0  0  0  0  0  0  0  0  0
   -8.2600  -15.8460   -5.8670 O   0  0  0  0  0  0  0  0  0  0  0  0
   -9.0870  -17.4340   -4.0260 O   0  0  0  0  0  0  0  0  0  0  0  0
   -9.1290  -18.2370   -6.4360 O   0  0  0  0  0  0  0  0  0  0  0  0
  -10.6310  -15.6770   -7.9550 O   0  0  0  0  0  0  0  0  0  0  0  0
  -12.3870  -12.9430   -1.9090 C   0  0  0  0  0  0  0  0  0  0  0  0
  -12.8420  -13.9810   -1.0290 C   0  0  0  0  0  0  0  0  0  0  0  0
  -11.1760  -12.2720   -4.5850 S   0  0  0  0  0  0  0  0  0  0  0  0
  -13.3760  -16.5730   -0.2530 Cl  0  0  0  0  0  0  0  0  0  0  0  0
   -9.3230  -17.0060   -5.4290 P   0  0  0  0  0  0  0  0  0  0  0  0
  1  2  2  0
  1 12  1  0
  2  3  1  0
  3  4  2  0
  3 14  1  0
  4  5  1  0
  5 16  2  0
  6 19  1  0
  6 23  2  0
  7  6  1  6
  7  8  1  0
  7 28  1  0
  8  9  1  0
  8 17  2  0
  9 10  2  0
  9 18  1  0
 10 11  1  0
 11 25  2  0
 11 27  1  0
 12 13  2  0
 13 14  1  0
 14 15  2  0
 15 16  1  0
 16 19  1  0
 17 26  1  0
 18 24  2  0
 18 26  1  0
 20 28  1  0
 21 28  2  0
 22 28  2  0
 24 25  1  0
M  END
>  <affinity>  (1) 
36.0

>  <affinity_unit>  (1) 
nM

>  <affinity_type>  (1) 
Ki

$$$$
4KP0_A
     RDKit          3D

 27 30  0  0  0  0  0  0  0  0999 V2000
  -10.4280  -16.5430   -7.0410 N   0  0  0  0  0  0  0  0  0  0  0  0
  -11.2330  -16.8450   -8.0790 C   0  0  0  0  0  0  0  0  0  0  0  0
   -9.2170  -16.4160   -7.5800 C   0  0  0  0  0  0  0  0  0  0  0  0
  -10.7860  -16.4120   -5.6290 C   0  0  0  0  0  0  0  0  0  0  0  0
  -10.3860  -16.8840   -9.3080 C   0  0  0  0  0  0  0  0  0  0  0  0
  -12.5980  -17.1130   -8.2080 C   0  0  0  0  0  0  0  0  0  0  0  0
   -9.1280  -16.6090   -8.9130 N   0  0  0  0  0  0  0  0  0  0  0  0
   -7.8100  -16.0010   -6.6220 S   0  0  0  0  0  0  0  0  0  0  0  0
  -11.1400  -15.0010   -5.2660 C   0  0  0  0  0  0  0  0  0  0  0  0
  -10.9430  -17.1840  -10.5460 C   0  0  0  0  0  0  0  0  0  0  0  0
  -13.1220  -17.4140   -9.4750 C   0  0  0  0  0  0  0  0  0  0  0  0
   -6.3590  -16.9050   -7.0970 C   0  0  0  0  0  0  0  0  0  0  0  0
  -11.7560  -14.6070   -3.9370 C   0  0  0  0  0  0  0  0  0  0  0  0
  -10.9510  -13.9250   -6.1430 C   0  0  0  0  0  0  0  0  0  0  0  0
  -12.3120  -17.4510  -10.6260 C   0  0  0  0  0  0  0  0  0  0  0  0
   -6.6870  -18.3380   -7.5350 C   0  0  0  0  0  0  0  0  0  0  0  0
  -11.9730  -13.1430   -3.9400 C   0  0  0  0  0  0  0  0  0  0  0  0
  -12.1660  -15.3330   -2.6920 C   0  0  0  0  0  0  0  0  0  0  0  0
  -11.4790  -12.4530   -5.3760 S   0  0  0  0  0  0  0  0  0  0  0  0
   -6.9070  -19.3020   -6.3620 C   0  0  0  0  0  0  0  0  0  0  0  0
  -12.5090  -12.4470   -2.8560 C   0  0  0  0  0  0  0  0  0  0  0  0
  -12.7100  -14.5650   -1.6560 C   0  0  0  0  0  0  0  0  0  0  0  0
  -12.0160  -16.8320   -2.5220 C   0  0  0  0  0  0  0  0  0  0  0  0
   -8.2480  -19.0420   -5.7400 C   0  0  0  0  0  0  0  0  0  0  0  0
  -12.8810  -13.1670   -1.7270 C   0  0  0  0  0  0  0  0  0  0  0  0
   -8.3140  -18.5380   -4.5830 O   0  0  0  0  0  0  0  0  0  0  0  0
   -9.2110  -19.3480   -6.4750 O   0  0  0  0  0  0  0  0  0  0  0  0
  1  2  1  0
  1  3  1  0
  1  4  1  0
  2  5  2  0
  2  6  1  0
  3  7  2  0
  3  8  1  0
  4  9  1  0
  5  7  1  0
  5 10  1  0
  6 11  2  0
  8 12  1  0
  9 13  1  0
  9 14  2  0
 10 15  2  0
 11 15  1  0
 12 16  1  0
 13 17  2  0
 13 18  1  0
 14 19  1  0
 16 20  1  0
 17 19  1  0
 17 21  1  0
 18 22  2  0
 18 23  1  0
 20 24  1  0
 21 25  2  0
 22 25  1  0
 24 26  1  0
 24 27  2  0
M  CHG  1  26   1
M  END
>  <affinity>  (2) 
22.0

>  <affinity_unit>  (2) 
nM

>  <affinity_type>  (2) 
IC50

$$$$
4K5Z_A
     RDKit          3D

 11 12  0  0  0  0  0  0  0  0999 V2000
  -11.1500  -17.2230   -3.6590 Cl  0  0  0  0  0  0  0  0  0  0  0  0
  -11.6770  -15.7020   -2.9880 C   0  0  0  0  0  0  0  0  0  0  0  0
  -11.1890  -14.5000   -3.4970 C   0  0  0  0  0  0  0  0  0  0  0  0
  -11.6030  -13.2890   -2.9670 C   0  0  0  0  0  0  0  0  0  0  0  0
  -12.5040  -13.2820   -1.9240 C   0  0  0  0  0  0  0  0  0  0  0  0
  -13.1470  -12.1700   -1.1260 C   0  0  0  0  0  0  0  0  0  0  0  0
  -14.0170  -12.8400   -0.1430 N   0  0  0  0  0  0  0  0  0  0  0  0
  -13.9240  -14.1840   -0.3150 C   0  0  0  0  0  0  0  0  0  0  0  0
  -14.5090  -15.0470    0.3270 O   0  0  0  0  0  0  0  0  0  0  0  0
  -12.9960  -14.4890   -1.4090 C   0  0  0  0  0  0  0  0  0  0  0  0
  -12.5800  -15.7100   -1.9450 C   0  0  0  0  0  0  0  0  0  0  0  0
  1  2  1  0
  2  3  2  0
  2 11  1  0
  3  4  1  0
  4  5  2  0
  5  6  1  0
  5 10  1  0
  6  7  2  0
  7  8  1  0
  8  9  2  0
  8 10  1  0
 10 11  2  0
M  END
>  <affinity>  (3) 
1000000.0

>  <affinity_unit>  (3) 
nM

>  <affinity_type>  (3) 
IC50

$$$$
1T31_A
     RDKit          3D

 49 55  0  0  0  0  0  0  0  0999 V2000
   -8.4980  -18.0160   -5.7570 P   0  0  0  0  0  0  0  0  0  0  0  0
   -9.5750  -17.4670  -11.1390 C   0  0  0  0  0  0  0  0  0  0  0  0
   -9.8450  -11.9320   -7.1000 N   0  0  0  0  0  0  0  0  0  0  0  0
   -8.8260  -18.0360   -4.3210 O   0  0  0  0  0  0  0  0  0  0  0  0
   -8.3260  -17.2600  -10.4620 C   0  0  0  0  0  0  0  0  0  0  0  0
  -13.1110  -12.8930   -9.7710 N   0  0  0  0  0  0  0  0  0  0  0  0
   -7.0460  -17.7650   -6.1770 O   0  0  0  0  0  0  0  0  0  0  0  0
   -8.3150  -17.0920   -9.0270 C   0  0  0  0  0  0  0  0  0  0  0  0
   -8.5980  -19.3560   -6.4770 O   0  0  0  0  0  0  0  0  0  0  0  0
   -9.5130  -17.1130   -8.1590 C   0  0  0  0  0  0  0  0  0  0  0  0
  -10.8570  -17.3250   -8.8430 C   0  0  0  0  0  0  0  0  0  0  0  0
  -11.7270  -13.5090   -2.9840 C   0  0  0  0  0  0  0  0  0  0  0  0
  -12.6470  -15.9020  -14.2630 C   0  0  0  0  0  0  0  0  0  0  0  0
   -8.5540  -14.7350   -7.0150 O   0  0  0  0  0  0  0  0  0  0  0  0
  -12.2120  -17.3800   -8.1930 C   0  0  0  0  0  0  0  0  0  0  0  0
   -8.2800  -11.8770   -5.2980 O   0  0  0  0  0  0  0  0  0  0  0  0
  -13.4430  -17.5920   -8.9570 C   0  0  0  0  0  0  0  0  0  0  0  0
  -14.3880  -11.8270  -11.4420 O   0  0  0  0  0  0  0  0  0  0  0  0
  -13.3880  -17.7650  -10.4310 C   0  0  0  0  0  0  0  0  0  0  0  0
  -12.1310  -17.7250  -11.1300 C   0  0  0  0  0  0  0  0  0  0  0  0
  -10.8520  -17.5090  -10.4070 C   0  0  0  0  0  0  0  0  0  0  0  0
  -11.7620  -15.0670   -3.1880 C   0  0  0  0  0  0  0  0  0  0  0  0
  -11.5100  -15.0060  -13.6520 C   0  0  0  0  0  0  0  0  0  0  0  0
   -9.5560  -16.9360   -6.6210 C   0  0  2  0  0  0  0  0  0  0  0  0
   -9.2470  -15.4500   -6.3570 C   0  0  0  0  0  0  0  0  0  0  0  0
  -10.1340  -14.8390   -5.1710 C   0  0  0  0  0  0  0  0  0  0  0  0
  -10.1360  -13.2840   -4.9220 C   0  0  0  0  0  0  0  0  0  0  0  0
  -10.9100  -12.7020   -3.8720 C   0  0  0  0  0  0  0  0  0  0  0  0
  -12.5210  -12.9050   -1.8900 C   0  0  0  0  0  0  0  0  0  0  0  0
  -13.3160  -13.7580   -1.0250 C   0  0  0  0  0  0  0  0  0  0  0  0
  -13.3510  -15.2380   -1.2100 C   0  0  0  0  0  0  0  0  0  0  0  0
  -12.5880  -15.8860   -2.2740 C   0  0  0  0  0  0  0  0  0  0  0  0
  -10.9780  -15.6490   -4.2580 C   0  0  0  0  0  0  0  0  0  0  0  0
   -9.3200  -12.2890   -5.7850 C   0  0  0  0  0  0  0  0  0  0  0  0
   -8.9990  -10.9690   -7.8970 C   0  0  0  0  0  0  0  0  0  0  0  0
  -11.1130  -12.4570   -7.6640 C   0  0  0  0  0  0  0  0  0  0  0  0
  -10.8570  -13.4590   -8.8200 C   0  0  0  0  0  0  0  0  0  0  0  0
  -12.2240  -13.9780   -9.2760 C   0  0  0  0  0  0  0  0  0  0  0  0
  -13.4520  -11.8600   -8.6980 C   0  0  0  0  0  0  0  0  0  0  0  0
  -12.1250  -11.2790   -8.0990 C   0  0  0  0  0  0  0  0  0  0  0  0
  -13.6520  -12.7480  -11.1120 C   0  0  0  0  0  0  0  0  0  0  0  0
  -13.2770  -13.8130  -12.1900 C   0  0  0  0  0  0  0  0  0  0  0  0
  -14.3420  -14.6930  -12.8000 C   0  0  0  0  0  0  0  0  0  0  0  0
  -14.0390  -15.6950  -13.7950 C   0  0  0  0  0  0  0  0  0  0  0  0
  -12.2680  -16.9210  -15.2820 C   0  0  0  0  0  0  0  0  0  0  0  0
  -10.8690  -17.0730  -15.6950 C   0  0  0  0  0  0  0  0  0  0  0  0
   -9.7920  -16.2210  -15.1180 C   0  0  0  0  0  0  0  0  0  0  0  0
  -10.1070  -15.2070  -14.1150 C   0  0  0  0  0  0  0  0  0  0  0  0
  -11.8780  -14.0120  -12.6540 C   0  0  0  0  0  0  0  0  0  0  0  0
  1  4  1  0
  1  7  2  0
  1  9  2  0
  1 24  1  0
  2  5  2  0
  2 21  1  0
  3 34  1  0
  3 35  1  0
  3 36  1  0
  5  8  1  0
  6 38  1  0
  6 39  1  0
  6 41  1  0
  8 10  2  0
 10 11  1  0
 10 24  1  0
 11 15  1  0
 11 21  2  0
 12 22  1  0
 12 28  2  0
 12 29  1  0
 13 23  1  0
 13 44  2  0
 13 45  1  0
 14 25  2  0
 15 17  2  0
 16 34  2  0
 17 19  1  0
 18 41  2  0
 19 20  2  0
 20 21  1  0
 22 32  1  0
 22 33  2  0
 23 48  1  0
 23 49  2  0
 24 25  1  6
 25 26  1  0
 26 27  2  0
 26 33  1  0
 27 28  1  0
 27 34  1  0
 29 30  2  0
 30 31  1  0
 31 32  2  0
 36 37  1  0
 36 40  1  0
 37 38  1  0
 39 40  1  0
 41 42  1  0
 42 43  2  0
 42 49  1  0
 43 44  1  0
 45 46  2  0
 46 47  1  0
 47 48  2  0
M  END
>  <affinity>  (4) 
2.299999952316284

>  <affinity_unit>  (4) 
nM

>  <affinity_type>  (4) 
Ki

$$$$
4K69_A
     RDKit          3D

 30 33  0  0  0  0  0  0  0  0999 V2000
   -6.9230  -21.4070   -8.4900 C   0  0  0  0  0  0  0  0  0  0  0  0
   -7.3900  -20.1710   -7.7120 C   0  0  0  0  0  0  0  0  0  0  0  0
   -7.3920  -18.9750   -8.6630 C   0  0  0  0  0  0  0  0  0  0  0  0
   -7.4460  -17.6720   -7.8680 C   0  0  1  0  0  0  0  0  0  0  0  0
   -7.0990  -16.5090   -8.8130 C   0  0  0  0  0  0  0  0  0  0  0  0
   -7.5890  -15.1740   -8.3150 C   0  0  0  0  0  0  0  0  0  0  0  0
   -7.4360  -14.8500   -7.1640 O   0  0  0  0  0  0  0  0  0  0  0  0
   -8.1940  -14.3270   -9.1620 O   0  0  0  0  0  0  0  0  0  0  0  0
   -8.7820  -17.4990   -7.2720 N   0  0  0  0  0  0  0  0  0  0  0  0
   -9.0280  -17.4060   -5.9490 C   0  0  0  0  0  0  0  0  0  0  0  0
   -8.1920  -17.4650   -5.0670 O   0  0  0  0  0  0  0  0  0  0  0  0
  -10.3500  -17.2290   -5.7350 N   0  0  0  0  0  0  0  0  0  0  0  0
  -11.0140  -17.1010   -4.4300 C   0  0  0  0  0  0  0  0  0  0  0  0
  -11.2770  -15.6560   -4.0700 C   0  0  0  0  0  0  0  0  0  0  0  0
  -10.7310  -14.6270   -4.8160 C   0  0  0  0  0  0  0  0  0  0  0  0
  -10.9920  -13.3160   -4.4590 C   0  0  0  0  0  0  0  0  0  0  0  0
  -11.7810  -13.0110   -3.3750 C   0  0  0  0  0  0  0  0  0  0  0  0
  -12.3170  -14.0450   -2.6220 C   0  0  0  0  0  0  0  0  0  0  0  0
  -13.1300  -13.9990   -1.4950 N   0  0  0  0  0  0  0  0  0  0  0  0
  -13.4710  -15.2200   -1.0610 C   0  0  0  0  0  0  0  0  0  0  0  0
  -14.1770  -15.4870   -0.1100 O   0  0  0  0  0  0  0  0  0  0  0  0
  -12.8020  -16.2100   -1.9830 C   0  0  0  0  0  0  0  0  0  0  0  0
  -12.0660  -15.3590   -2.9840 C   0  0  0  0  0  0  0  0  0  0  0  0
  -10.9930  -17.2270   -6.9610 C   0  0  0  0  0  0  0  0  0  0  0  0
  -12.3340  -17.0910   -7.3060 C   0  0  0  0  0  0  0  0  0  0  0  0
  -12.6880  -17.1230   -8.6380 C   0  0  0  0  0  0  0  0  0  0  0  0
  -11.7220  -17.2890   -9.6180 C   0  0  0  0  0  0  0  0  0  0  0  0
  -10.3880  -17.4140   -9.2770 C   0  0  0  0  0  0  0  0  0  0  0  0
  -10.0100  -17.3910   -7.9410 C   0  0  0  0  0  0  0  0  0  0  0  0
  -10.2650  -11.8860   -5.4510 Br  0  0  0  0  0  0  0  0  0  0  0  0
  1  2  1  0
  2  3  1  0
  4  3  1  6
  4  5  1  0
  4  9  1  0
  5  6  1  0
  6  7  1  0
  6  8  2  0
  9 10  1  0
  9 29  1  0
 10 11  2  0
 10 12  1  0
 12 13  1  0
 12 24  1  0
 13 14  1  0
 14 15  2  0
 14 23  1  0
 15 16  1  0
 16 17  2  0
 16 30  1  0
 17 18  1  0
 18 19  2  0
 18 23  1  0
 19 20  1  0
 20 21  2  0
 20 22  1  0
 22 23  2  0
 24 25  1  0
 24 29  2  0
 25 26  2  0
 26 27  1  0
 27 28  2  0
 28 29  1  0
M  END
>  <affinity>  (5) 
40.0

>  <affinity_unit>  (5) 
nM

>  <affinity_type>  (5) 
IC50

$$$$
4K60_A
     RDKit          3D

 11 12  0  0  0  0  0  0  0  0999 V2000
  -11.0660  -13.1520   -4.1440 C   0  0  0  0  0  0  0  0  0  0  0  0
  -10.7360  -14.4660   -4.4030 C   0  0  0  0  0  0  0  0  0  0  0  0
  -11.2880  -15.4720   -3.6300 C   0  0  0  0  0  0  0  0  0  0  0  0
  -12.1540  -15.1480   -2.6110 C   0  0  0  0  0  0  0  0  0  0  0  0
  -12.9020  -15.9940   -1.6090 C   0  0  0  0  0  0  0  0  0  0  0  0
  -13.6680  -15.0020   -0.7720 C   0  0  0  0  0  0  0  0  0  0  0  0
  -14.4070  -15.2720    0.1580 O   0  0  0  0  0  0  0  0  0  0  0  0
  -13.3650  -13.7720   -1.2440 N   0  0  0  0  0  0  0  0  0  0  0  0
  -12.4840  -13.8270   -2.3280 C   0  0  0  0  0  0  0  0  0  0  0  0
  -11.9280  -12.8120   -3.1160 C   0  0  0  0  0  0  0  0  0  0  0  0
  -10.3000  -11.8030   -5.2300 Br  0  0  0  0  0  0  0  0  0  0  0  0
  1  2  1  0
  1 10  2  0
  1 11  1  0
  2  3  2  0
  3  4  1  0
  4  5  2  0
  4  9  1  0
  5  6  1  0
  6  7  2  0
  6  8  1  0
  8  9  2  0
  9 10  1  0
M  END
>  <affinity>  (6) 
570000.0

>  <affinity_unit>  (6) 
nM

>  <affinity_type>  (6) 
IC50

$$$$
3S0N_A
     RDKit          3D

 27 30  0  0  0  0  0  0  0  0999 V2000
   -7.9570  -16.5390   -9.6450 C   0  0  0  0  0  0  0  0  0  0  0  0
   -8.2740  -16.1450   -6.7230 O   0  0  0  0  0  0  0  0  0  0  0  0
  -12.7550  -17.1440   -8.1340 C   0  0  0  0  0  0  0  0  0  0  0  0
  -13.2490  -17.4240   -9.3820 C   0  0  0  0  0  0  0  0  0  0  0  0
  -12.3690  -17.4600  -10.6010 C   0  0  0  0  0  0  0  0  0  0  0  0
  -11.0170  -17.2170  -10.5530 C   0  0  0  0  0  0  0  0  0  0  0  0
  -10.4100  -16.9040   -9.2110 C   0  0  0  0  0  0  0  0  0  0  0  0
  -11.2840  -16.8680   -8.0020 C   0  0  0  0  0  0  0  0  0  0  0  0
  -10.5020  -16.5690   -6.9650 N   0  0  0  0  0  0  0  0  0  0  0  0
   -9.2220  -16.4230   -7.4400 C   0  0  0  0  0  0  0  0  0  0  0  0
   -9.1660  -16.6200   -8.7980 N   0  0  0  0  0  0  0  0  0  0  0  0
   -7.7020  -15.1050  -10.1530 C   0  0  0  0  0  0  0  0  0  0  0  0
   -6.3060  -14.5820   -9.7560 C   0  0  0  0  0  0  0  0  0  0  0  0
  -10.8860  -16.4170   -5.5520 C   0  0  0  0  0  0  0  0  0  0  0  0
  -11.1920  -14.9940   -5.0460 C   0  0  0  0  0  0  0  0  0  0  0  0
  -11.7910  -14.6270   -3.7240 C   0  0  0  0  0  0  0  0  0  0  0  0
  -11.9110  -13.1730   -3.6450 C   0  0  0  0  0  0  0  0  0  0  0  0
  -11.3450  -12.3930   -5.0400 S   0  0  0  0  0  0  0  0  0  0  0  0
  -10.9260  -13.8320   -5.8140 C   0  0  0  0  0  0  0  0  0  0  0  0
  -12.2380  -15.4010   -2.5960 C   0  0  0  0  0  0  0  0  0  0  0  0
  -12.7810  -14.7450   -1.4490 C   0  0  0  0  0  0  0  0  0  0  0  0
  -12.8850  -13.3390   -1.4020 C   0  0  0  0  0  0  0  0  0  0  0  0
  -12.4460  -12.5700   -2.5030 C   0  0  0  0  0  0  0  0  0  0  0  0
  -12.1630  -16.9090   -2.5540 C   0  0  0  0  0  0  0  0  0  0  0  0
   -6.0120  -13.1430  -10.2430 C   0  0  0  0  0  0  0  0  0  0  0  0
   -5.0020  -12.5920   -9.8070 O   0  0  0  0  0  0  0  0  0  0  0  0
   -6.7800  -12.5880  -11.0420 O   0  0  0  0  0  0  0  0  0  0  0  0
  1 11  1  0
  1 12  1  0
  2 10  2  0
  3  4  2  0
  3  8  1  0
  4  5  1  0
  5  6  2  0
  6  7  1  0
  7  8  2  0
  7 11  1  0
  8  9  1  0
  9 10  1  0
  9 14  1  0
 10 11  1  0
 12 13  1  0
 13 25  1  0
 14 15  1  0
 15 16  1  0
 15 19  2  0
 16 17  2  0
 16 20  1  0
 17 18  1  0
 17 23  1  0
 18 19  1  0
 20 21  2  0
 20 24  1  0
 21 22  1  0
 22 23  2  0
 25 26  1  0
 25 27  2  0
M  END
>  <affinity>  (7) 
97.0

>  <affinity_unit>  (7) 
nM

>  <affinity_type>  (7) 
IC50

$$$$
5YJP_A
     RDKit          3D

 37 39  0  0  0  0  0  0  0  0999 V2000
  -14.1190  -15.1550   -0.4480 Cl  0  0  0  0  0  0  0  0  0  0  0  0
   -9.4380  -16.6860   -5.9130 C   0  0  0  0  0  0  0  0  0  0  0  0
   -8.5270  -17.1000   -5.1810 O   0  0  0  0  0  0  0  0  0  0  0  0
  -10.5590  -15.8400   -5.2600 C   0  0  2  0  0  0  0  0  0  0  0  0
  -10.2240  -15.5770   -3.8190 C   0  0  0  0  0  0  0  0  0  0  0  0
  -11.1960  -14.6990   -3.0990 C   0  0  0  0  0  0  0  0  0  0  0  0
  -11.2290  -13.3420   -3.4010 C   0  0  0  0  0  0  0  0  0  0  0  0
  -12.1770  -12.5230   -2.6830 C   0  0  0  0  0  0  0  0  0  0  0  0
  -13.0310  -13.0840   -1.7700 C   0  0  0  0  0  0  0  0  0  0  0  0
  -13.0420  -14.4500   -1.5520 C   0  0  0  0  0  0  0  0  0  0  0  0
  -12.1290  -15.2740   -2.1980 C   0  0  0  0  0  0  0  0  0  0  0  0
  -11.8580  -16.6800   -5.4200 C   0  0  0  0  0  0  0  0  0  0  0  0
  -12.4310  -16.7880   -6.7340 N   0  0  0  0  0  0  0  0  0  0  0  0
  -11.9100  -16.5880   -7.9910 C   0  0  0  0  0  0  0  0  0  0  0  0
  -12.6430  -16.8290   -9.0070 N   0  0  0  0  0  0  0  0  0  0  0  0
  -10.4640  -16.1260   -8.1440 C   0  0  0  0  0  0  0  0  0  0  0  0
   -9.4390  -16.8280   -7.3000 N   0  0  0  0  0  0  0  0  0  0  0  0
   -8.4740  -17.5410   -8.0600 C   0  0  0  0  0  0  0  0  0  0  0  0
   -8.5480  -17.6000   -9.2840 O   0  0  0  0  0  0  0  0  0  0  0  0
   -7.5400  -18.2460   -7.3820 N   0  0  0  0  0  0  0  0  0  0  0  0
   -6.3980  -19.0120   -7.9640 C   0  0  1  0  0  0  0  0  0  0  0  0
   -5.2580  -18.2580   -7.2220 C   0  0  0  0  0  0  0  0  0  0  0  0
  -10.3060  -12.9420   -4.3240 O   0  0  0  0  0  0  0  0  0  0  0  0
  -10.1280  -11.5790   -4.7440 C   0  0  0  0  0  0  0  0  0  0  0  0
   -4.6220  -17.1710   -7.8390 C   0  0  0  0  0  0  0  0  0  0  0  0
   -3.6350  -16.4150   -7.1540 C   0  0  0  0  0  0  0  0  0  0  0  0
   -3.2660  -16.7470   -5.8270 C   0  0  0  0  0  0  0  0  0  0  0  0
   -3.8910  -17.8730   -5.2190 C   0  0  0  0  0  0  0  0  0  0  0  0
   -4.8570  -18.6150   -5.9110 C   0  0  0  0  0  0  0  0  0  0  0  0
   -6.4860  -20.5150   -7.7260 C   0  0  0  0  0  0  0  0  0  0  0  0
   -2.1960  -15.9700   -5.1350 C   0  0  0  0  0  0  0  0  0  0  0  0
   -1.8860  -16.2950   -3.9260 O   0  0  0  0  0  0  0  0  0  0  0  0
   -1.6810  -14.9620   -5.7870 O   0  0  0  0  0  0  0  0  0  0  0  0
   -7.3920  -21.2030   -8.6650 C   0  0  0  0  0  0  0  0  0  0  0  0
  -13.9350  -17.2690   -8.7490 O   0  0  0  0  0  0  0  0  0  0  0  0
  -14.4860  -17.8750   -9.9330 C   0  0  0  0  0  0  0  0  0  0  0  0
  -15.8910  -18.3650   -9.6070 C   0  0  0  0  0  0  0  0  0  0  0  0
  1 10  1  0
  2  3  2  0
  2  4  1  0
  2 17  1  0
  4  5  1  1
  4 12  1  0
  5  6  1  0
  6  7  2  0
  6 11  1  0
  7  8  1  0
  7 23  1  0
  8  9  2  0
  9 10  1  0
 10 11  2  0
 12 13  1  0
 13 14  1  0
 14 15  1  0
 14 16  1  0
 15 35  1  0
 16 17  1  0
 17 18  1  0
 18 19  2  0
 18 20  1  0
 20 21  1  0
 21 22  1  0
 21 30  1  1
 22 25  2  0
 22 29  1  0
 23 24  1  0
 25 26  1  0
 26 27  2  0
 27 28  1  0
 27 31  1  0
 28 29  2  0
 30 34  1  0
 31 32  1  0
 31 33  2  0
 35 36  1  0
 36 37  1  0
M  END
>  <affinity>  (8) 
240.0

>  <affinity_unit>  (8) 
nM

>  <affinity_type>  (8) 
IC50

$$$$
3N7O_A
     RDKit          3D

 28 30  0  0  0  0  0  0  0  0999 V2000
  -13.0430  -15.8070   -0.7420 Cl  0  0  0  0  0  0  0  0  0  0  0  0
   -9.3260  -17.2600   -5.7170 P   0  0  0  0  0  0  0  0  0  0  0  0
   -7.9340  -16.3240   -6.3110 C   0  0  0  0  0  0  0  0  0  0  0  0
   -9.1940  -17.5600   -4.2660 O   0  0  0  0  0  0  0  0  0  0  0  0
   -9.2980  -18.5820   -6.5700 O   0  0  0  0  0  0  0  0  0  0  0  0
  -10.8880  -16.3480   -6.0220 C   0  0  2  0  0  0  0  0  0  0  0  0
  -11.3190  -16.5390   -7.5230 C   0  0  2  0  0  0  0  0  0  0  0  0
  -10.7770  -15.9880   -8.4490 O   0  0  0  0  0  0  0  0  0  0  0  0
  -12.6340  -17.0760   -7.6380 N   0  0  0  0  0  0  0  0  0  0  0  0
  -13.2870  -17.3280   -8.8820 C   0  0  0  0  0  0  0  0  0  0  0  0
  -14.4550  -17.9880   -8.8810 C   0  0  0  0  0  0  0  0  0  0  0  0
  -15.1080  -18.5240  -10.0950 C   0  0  0  0  0  0  0  0  0  0  0  0
  -16.3570  -19.1650  -10.0650 C   0  0  0  0  0  0  0  0  0  0  0  0
  -16.9560  -19.6520  -11.2180 C   0  0  0  0  0  0  0  0  0  0  0  0
  -16.2960  -19.4670  -12.4290 C   0  0  0  0  0  0  0  0  0  0  0  0
  -15.0560  -18.8380  -12.4820 C   0  0  0  0  0  0  0  0  0  0  0  0
  -14.4570  -18.3550  -11.3250 C   0  0  0  0  0  0  0  0  0  0  0  0
  -10.9340  -14.9120   -5.5140 C   0  0  0  0  0  0  0  0  0  0  0  0
  -10.5770  -13.7870   -6.1800 C   0  0  0  0  0  0  0  0  0  0  0  0
  -10.8350  -12.3370   -5.3000 S   0  0  0  0  0  0  0  0  0  0  0  0
  -11.4570  -13.1720   -3.9290 C   0  0  0  0  0  0  0  0  0  0  0  0
  -11.9140  -12.5920   -2.7410 C   0  0  0  0  0  0  0  0  0  0  0  0
  -12.3920  -13.4030   -1.7220 C   0  0  0  0  0  0  0  0  0  0  0  0
  -12.3940  -14.7790   -1.9720 C   0  0  0  0  0  0  0  0  0  0  0  0
  -11.9470  -15.3620   -3.1330 C   0  0  0  0  0  0  0  0  0  0  0  0
  -11.4660  -14.5620   -4.1680 C   0  0  0  0  0  0  0  0  0  0  0  0
  -16.8440  -19.9180  -13.5510 F   0  0  0  0  0  0  0  0  0  0  0  0
  -14.4520  -18.6990  -13.6720 F   0  0  0  0  0  0  0  0  0  0  0  0
  1 24  1  0
  2  3  1  0
  2  4  2  0
  2  5  2  0
  6  2  1  0
  6  7  1  0
  6 18  1  6
  7  8  1  6
  7  9  1  0
  9 10  1  0
 10 11  1  0
 11 12  1  0
 12 13  2  0
 12 17  1  0
 13 14  1  0
 14 15  2  0
 15 16  1  0
 15 27  1  0
 16 17  2  0
 16 28  1  0
 18 19  2  0
 18 26  1  0
 19 20  1  0
 20 21  1  0
 21 22  1  0
 21 26  2  0
 22 23  2  0
 23 24  1  0
 24 25  2  0
 25 26  1  0
M  END
>  <affinity>  (9) 
58.0

>  <affinity_unit>  (9) 
nM

>  <affinity_type>  (9) 
IC50

$$$$
5YJM_A
     RDKit          3D

 42 45  0  0  0  0  0  0  0  0999 V2000
  -14.0620  -15.1080   -0.4390 Cl  0  0  0  0  0  0  0  0  0  0  0  0
   -9.5190  -16.7380   -6.0850 C   0  0  0  0  0  0  0  0  0  0  0  0
   -8.5670  -17.2150   -5.4810 O   0  0  0  0  0  0  0  0  0  0  0  0
  -10.6310  -16.0430   -5.3110 C   0  0  2  0  0  0  0  0  0  0  0  0
  -10.3050  -15.5350   -3.9220 C   0  0  0  0  0  0  0  0  0  0  0  0
  -11.2990  -14.7250   -3.1850 C   0  0  0  0  0  0  0  0  0  0  0  0
  -11.3480  -13.3640   -3.4580 C   0  0  0  0  0  0  0  0  0  0  0  0
  -12.2810  -12.5790   -2.7430 C   0  0  0  0  0  0  0  0  0  0  0  0
  -13.1250  -13.1220   -1.7910 C   0  0  0  0  0  0  0  0  0  0  0  0
  -13.0530  -14.4950   -1.5850 C   0  0  0  0  0  0  0  0  0  0  0  0
  -12.1690  -15.3190   -2.2700 C   0  0  0  0  0  0  0  0  0  0  0  0
  -12.0540  -16.5900   -5.4820 C   0  0  0  0  0  0  0  0  0  0  0  0
  -12.6080  -16.8510   -6.7640 N   0  0  0  0  0  0  0  0  0  0  0  0
  -12.0880  -16.6140   -7.9950 C   0  0  0  0  0  0  0  0  0  0  0  0
  -12.7030  -16.8990   -9.0550 N   0  0  0  0  0  0  0  0  0  0  0  0
  -10.7090  -16.0340   -8.1670 C   0  0  0  0  0  0  0  0  0  0  0  0
   -9.6840  -16.8250   -7.4700 N   0  0  0  0  0  0  0  0  0  0  0  0
   -8.8430  -17.5560   -8.3230 C   0  0  0  0  0  0  0  0  0  0  0  0
   -9.0200  -17.5890   -9.4980 O   0  0  0  0  0  0  0  0  0  0  0  0
   -7.8980  -18.3130   -7.8050 N   0  0  0  0  0  0  0  0  0  0  0  0
   -6.9490  -19.0970   -8.5830 C   0  0  1  0  0  0  0  0  0  0  0  0
   -5.7180  -18.6270   -7.8580 C   0  0  0  0  0  0  0  0  0  0  0  0
  -10.4990  -12.9840   -4.4580 O   0  0  0  0  0  0  0  0  0  0  0  0
  -10.3870  -11.6340   -4.8920 C   0  0  0  0  0  0  0  0  0  0  0  0
   -5.2130  -19.2200   -6.6610 C   0  0  0  0  0  0  0  0  0  0  0  0
   -4.1040  -18.6970   -5.9890 C   0  0  0  0  0  0  0  0  0  0  0  0
   -3.4920  -17.4920   -6.4720 C   0  0  0  0  0  0  0  0  0  0  0  0
   -4.0350  -16.8730   -7.6310 C   0  0  0  0  0  0  0  0  0  0  0  0
   -5.1300  -17.4280   -8.3030 C   0  0  0  0  0  0  0  0  0  0  0  0
   -7.5160  -20.5220   -8.6790 C   0  0  0  0  0  0  0  0  0  0  0  0
   -2.3010  -16.8220   -5.8110 C   0  0  0  0  0  0  0  0  0  0  0  0
   -1.8130  -15.7440   -6.2960 O   0  0  0  0  0  0  0  0  0  0  0  0
   -1.8000  -17.3640   -4.7770 O   0  0  0  0  0  0  0  0  0  0  0  0
   -6.5380  -21.5710   -8.4190 C   0  0  0  0  0  0  0  0  0  0  0  0
   -3.6310  -19.3830   -4.8860 N   0  0  0  0  0  0  0  0  0  0  0  0
  -14.0150  -17.3690   -8.7790 O   0  0  0  0  0  0  0  0  0  0  0  0
  -14.7490  -17.8590   -9.8090 C   0  0  0  0  0  0  0  0  0  0  0  0
  -15.9740  -18.4430   -9.4570 C   0  0  0  0  0  0  0  0  0  0  0  0
  -16.8140  -19.0120  -10.4190 C   0  0  0  0  0  0  0  0  0  0  0  0
  -16.3980  -19.0910  -11.7520 C   0  0  0  0  0  0  0  0  0  0  0  0
  -15.1720  -18.5280  -12.1090 C   0  0  0  0  0  0  0  0  0  0  0  0
  -14.3150  -17.9490  -11.1410 C   0  0  0  0  0  0  0  0  0  0  0  0
  1 10  1  0
  2  3  2  0
  2  4  1  0
  2 17  1  0
  4  5  1  1
  4 12  1  0
  5  6  1  0
  6  7  2  0
  6 11  1  0
  7  8  1  0
  7 23  1  0
  8  9  2  0
  9 10  1  0
 10 11  2  0
 12 13  1  0
 13 14  1  0
 14 15  1  0
 14 16  1  0
 15 36  1  0
 16 17  1  0
 17 18  1  0
 18 19  2  0
 18 20  1  0
 20 21  1  0
 21 22  1  0
 21 30  1  1
 22 25  2  0
 22 29  1  0
 23 24  1  0
 25 26  1  0
 26 27  2  0
 26 35  1  0
 27 28  1  0
 27 31  1  0
 28 29  2  0
 30 34  1  0
 31 32  1  0
 31 33  2  0
 36 37  1  0
 37 38  2  0
 37 42  1  0
 38 39  1  0
 39 40  2  0
 40 41  1  0
 41 42  2  0
M  END
>  <affinity>  (10) 
8.899999618530273

>  <affinity_unit>  (10) 
nM

>  <affinity_type>  (10) 
IC50

$$$$
4K2Y_A
     RDKit          3D

 11 12  0  0  0  0  0  0  0  0999 V2000
  -10.4920  -11.7140   -5.2300 Cl  0  0  0  0  0  0  0  0  0  0  0  0
  -11.0840  -13.0170   -4.2490 C   0  0  0  0  0  0  0  0  0  0  0  0
  -10.6590  -14.3050   -4.5210 C   0  0  0  0  0  0  0  0  0  0  0  0
  -11.1190  -15.3510   -3.7540 C   0  0  0  0  0  0  0  0  0  0  0  0
  -11.9950  -15.1030   -2.7270 C   0  0  0  0  0  0  0  0  0  0  0  0
  -12.6650  -16.0110   -1.7260 C   0  0  0  0  0  0  0  0  0  0  0  0
  -13.4980  -15.0750   -0.8810 C   0  0  0  0  0  0  0  0  0  0  0  0
  -14.1930  -15.4010    0.0510 O   0  0  0  0  0  0  0  0  0  0  0  0
  -13.3090  -13.8250   -1.3500 N   0  0  0  0  0  0  0  0  0  0  0  0
  -12.4290  -13.8100   -2.4360 C   0  0  0  0  0  0  0  0  0  0  0  0
  -11.9610  -12.7530   -3.2140 C   0  0  0  0  0  0  0  0  0  0  0  0
  1  2  1  0
  2  3  1  0
  2 11  2  0
  3  4  2  0
  4  5  1  0
  5  6  2  0
  5 10  1  0
  6  7  1  0
  7  8  2  0
  7  9  1  0
  9 10  2  0
 10 11  1  0
M  END
>  <affinity>  (11) 
470000.0

>  <affinity_unit>  (11) 
nM

>  <affinity_type>  (11) 
IC50

$$$$
